/*--------------------------------*- C++ -*----------------------------------*\
  =========                 |
  \\      /  F ield         | OpenFOAM: The Open Source CFD Toolbox
   \\    /   O peration     | Website:  https://openfoam.org
    \\  /    A nd           | Version:  9
     \\/     M anipulation  |
\*---------------------------------------------------------------------------*/
FoamFile
{
    format      ascii;
    class       dictionary;
    location    "system";
    object      fvSchemes;
}
// * * * * * * * * * * * * * * * * * * * * * * * * * * * * * * * * * * * * * //

ddtSchemes
{
    default         steadyState;
}

gradSchemes
{
    default         Gauss linear;
}

divSchemes
{
    default         none;
    div(phi,U)      bounded Gauss linearUpwind grad(U);//Gauss linearUpwindV grad(U);
    div(phi,k)      bounded Gauss linearUpwind grad(k);//Gauss linear;
    div(phi,epsilon) bounded Gauss linearUpwind grad(epsilon);//Gauss upwind;
    div((nuEff*dev2(T(grad(U))))) Gauss linear;//Gauss upwind;
}

laplacianSchemes
{
    default         Gauss linear corrected;
}

interpolationSchemes
{
    default         linear;
}

snGradSchemes
{
    default         corrected;//uncorrected
}

//fluxRequired
//{
//   default 	   no;
//   p		   ;

//}
/*wallDist
{
    method meshWave;
}*/


// ************************************************************************* //
